M
WebTableWithoutCaptionCheck Add a description to this table. 2		 9l
WebTableHeaderHasIdOrScopeCheck;Add either an 'id' or a 'scope' attribute to this <th> tag. 2
 C
WebS1827)Remove this deprecated "width" attribute. 2
 C
WebS1827)Remove this deprecated "width" attribute. 2
 C
WebS1827)Remove this deprecated "width" attribute. 2
 C
WebS1827)Remove this deprecated "width" attribute. 2
 C
WebS1827)Remove this deprecated "width" attribute. 2""
 C
WebS1827)Remove this deprecated "width" attribute. 2&&
 1C
WebS1827)Remove this deprecated "width" attribute. 2..
 1C
WebS1827)Remove this deprecated "width" attribute. 266
 